Circuit: * I:\RaD\SI-ET\Projets\ECS\TB_2023_Logger\LTspice\CurrentSource.asc

Direct Newton iteration for .op point succeeded.

Date: Mon Mar 20 09:33:49 2023
Total elapsed time: 0.149 seconds.

tnom = 27
temp = 27
method = modified trap
totiter = 2127
traniter = 2091
tranpoints = 1045
accept = 1045
rejected = 0
matrix size = 27
fillins = 29
solver = Normal
Matrix Compiler1: 2.57 KB object code size  0.5/0.5/[0.2]
Matrix Compiler2: 2.59 KB object code size  0.3/0.6/[0.3]

