Circuit: * I:\RaD\SI-ET\Projets\ECS\TB_2023_Logger\LTspice\Draft2.asc

Direct Newton iteration for .op point succeeded.

Date: Thu Mar 23 12:39:07 2023
Total elapsed time: 7.641 seconds.

tnom = 27
temp = 27
method = modified trap
totiter = 367224
traniter = 367189
tranpoints = 183420
accept = 150067
rejected = 33353
matrix size = 15
fillins = 4
solver = Normal
Matrix Compiler1: 980 bytes object code size  0.2/0.2/[0.1]
Matrix Compiler2: 1.35 KB object code size  0.2/0.2/[0.2]

