Circuit: * I:\RaD\SI-ET\Projets\ECS\TB_2023_Logger\LTspice\Draft1.asc


Date: Thu Mar 30 08:12:31 2023
Total elapsed time: 0.193 seconds.

tnom = 27
temp = 27
method = trap
totiter = 6035
traniter = 0
tranpoints = 0
accept = 0
rejected = 0
matrix size = 9
fillins = 2
solver = Normal
Matrix Compiler1: 416 bytes object code size  0.1/0.1/[0.1]
Matrix Compiler2: off  [0.1]/0.1/0.1

