Circuit: * I:\RaD\SI-ET\Projets\ECS\TB_2023_Logger\LTspice\InputFilter2.asc

WARNING: Less than two connections to node VN.  This node is used by R10.
WARNING: Less than two connections to node VP.  This node is used by R11.
WARNING: Less than two connections to node VEE.  This node is used by V5.
Early termination of direct N-R iteration.
Direct Newton iteration failed to find .op point.  (Use ".option noopiter" to skip.)
Starting Gmin stepping
Gmin = 10
Gmin = 1.07374
Gmin = 0.115292
Gmin = 0.0123794
Gmin = 0.00132923
Gmin = 0.000142725
Gmin = 1.5325e-005
Gmin = 1.6455e-006
Gmin = 1.76685e-007
vernier = 0.5
vernier = 0.25
Gmin = 5.14632e-008
vernier = 0.333333
Gmin = 2.54707e-008
vernier = 0.444444
vernier = 0.592592
vernier = 0.296296
Gmin = 1.08827e-008
vernier = 0.148148
vernier = 0.074074
vernier = 0.037037
vernier = 0.0185185
vernier = 0.00925925
vernier = 0.00462963
vernier = 0.00231481
vernier = 0.00115741
vernier = 0.000578703
vernier = 0.000434027
Gmin = 1.08827e-008
Gmin = 0
Gmin stepping failed

Starting source stepping with srcstepmethod=0
Source Step = 3.0303%
Source Step = 24.4318%
vernier = 0.015625
Source Step = 24.2661%
Source Step = 24.2957%
Source Step = 24.3253%
Source Step = 24.3549%
Source Step = 24.3845%
vernier = 0.00146484
Source Step = 24.4229%
Source Step = 24.4673%
Source Step = 24.5117%
Source Step = 24.5561%
Source Step = 24.6005%
vernier = 0.00219727
Source Step = 24.656%
Source Step = 24.7226%
Source Step = 24.7892%
Source Step = 24.8557%
Source Step = 24.9223%
vernier = 0.0032959
Source Step = 25.0022%
Source Step = 25.1021%
Source Step = 25.202%
Source Step = 25.3018%
Source Step = 25.4017%
vernier = 0.00494385
Source Step = 25.5166%
Source Step = 25.6664%
Source Step = 25.8162%
Source Step = 25.966%
Source Step = 26.1158%
vernier = 0.00741577
Source Step = 26.2806%
Source Step = 26.5053%
Source Step = 26.7301%
Source Step = 26.9548%
Source Step = 27.1795%
vernier = 0.0111237
Source Step = 27.4155%
Source Step = 27.7525%
Source Step = 28.0896%
Source Step = 28.4267%
Source Step = 28.7638%
Source Step = 29.1009%
vernier = 0.0166855
Source Step = 29.6065%
Source Step = 30.1121%
Source Step = 30.6177%
Source Step = 31.1234%
Source Step = 31.629%
vernier = 0.0250282
Source Step = 32.3621%
Source Step = 33.1206%
Source Step = 33.879%
Source Step = 34.6374%
Source Step = 35.3958%
vernier = 0.0375423
Source Step = 36.4577%
Source Step = 37.5953%
Source Step = 38.7329%
Source Step = 39.8706%
Source Step = 41.0082%
vernier = 0.0563135
Source Step = 42.5441%
Source Step = 44.2505%
Source Step = 45.957%
Source Step = 47.6635%
Source Step = 49.3699%
vernier = 0.0844703
Source Step = 51.5884%
Source Step = 54.1481%
Source Step = 56.7078%
Source Step = 59.2675%
Source Step = 61.8272%
vernier = 0.126705
Source Step = 65.0268%
Source Step = 67.0426%
Source Step = 67.3245%
Source Step = 67.3845%
Source Step = 67.4445%
Trouble finding operating point....skipping operating point for Transient analysis.

Date: Mon Mar 27 11:06:50 2023
Total elapsed time: 7.324 seconds.

tnom = 27
temp = 27
method = modified trap
totiter = 5980
traniter = 0
tranpoints = 1
accept = 1
rejected = 0
matrix size = 303
fillins = 952
solver = Normal

